/*--------------------------------*- C++ -*----------------------------------*\
  =========                 |
  \\      /  F ield         | OpenFOAM: The Open Source CFD Toolbox
   \\    /   O peration     | Website:  https://openfoam.org
    \\  /    A nd           | Version:  12
     \\/     M anipulation  |
\*---------------------------------------------------------------------------*/
FoamFile
{
    format      binary;
    class       polyBoundaryMesh;
    location    "constant/polyMesh";
    object      boundary;
}
// * * * * * * * * * * * * * * * * * * * * * * * * * * * * * * * * * * * * * //

9
(
    walls
    {
        type            wall;
        physicalType    patch;
        inGroups        List<word> 1(wall);
        nFaces          39;
        startFace       3226;
    }
    bottom
    {
        type            wall;
        physicalType    patch;
        inGroups        List<word> 1(wall);
        nFaces          0;
        startFace       3265;
    }
    outlet
    {
        type            patch;
        physicalType    patch;
        nFaces          0;
        startFace       3265;
    }
    inlet
    {
        type            patch;
        physicalType    patch;
        nFaces          0;
        startFace       3265;
    }
    defaultFaces
    {
        type            empty;
        inGroups        List<word> 1(empty);
        nFaces          3308;
        startFace       3265;
    }
    procBoundary13to8
    {
        type            processor;
        inGroups        List<word> 1(processor);
        nFaces          42;
        startFace       6573;
        matchTolerance  0.0001;
        myProcNo        13;
        neighbProcNo    8;
    }
    procBoundary13to12
    {
        type            processor;
        inGroups        List<word> 1(processor);
        nFaces          43;
        startFace       6615;
        matchTolerance  0.0001;
        myProcNo        13;
        neighbProcNo    12;
    }
    procBoundary13to14
    {
        type            processor;
        inGroups        List<word> 1(processor);
        nFaces          39;
        startFace       6658;
        matchTolerance  0.0001;
        myProcNo        13;
        neighbProcNo    14;
    }
    procBoundary13to15
    {
        type            processor;
        inGroups        List<word> 1(processor);
        nFaces          1;
        startFace       6697;
        matchTolerance  0.0001;
        myProcNo        13;
        neighbProcNo    15;
    }
)

// ************************************************************************* //
