/*--------------------------------*- C++ -*----------------------------------*\
  =========                 |
  \\      /  F ield         | OpenFOAM: The Open Source CFD Toolbox
   \\    /   O peration     | Website:  https://openfoam.org
    \\  /    A nd           | Version:  12
     \\/     M anipulation  |
\*---------------------------------------------------------------------------*/
FoamFile
{
    format      binary;
    class       polyBoundaryMesh;
    location    "constant/polyMesh";
    object      boundary;
}
// * * * * * * * * * * * * * * * * * * * * * * * * * * * * * * * * * * * * * //

11
(
    walls
    {
        type            wall;
        physicalType    patch;
        inGroups        List<word> 1(wall);
        nFaces          0;
        startFace       3237;
    }
    bottom
    {
        type            wall;
        physicalType    patch;
        inGroups        List<word> 1(wall);
        nFaces          0;
        startFace       3237;
    }
    outlet
    {
        type            patch;
        physicalType    patch;
        nFaces          0;
        startFace       3237;
    }
    inlet
    {
        type            patch;
        physicalType    patch;
        nFaces          0;
        startFace       3237;
    }
    defaultFaces
    {
        type            empty;
        inGroups        List<word> 1(empty);
        nFaces          3320;
        startFace       3237;
    }
    procBoundary11to2
    {
        type            processor;
        inGroups        List<word> 1(processor);
        nFaces          4;
        startFace       6557;
        matchTolerance  0.0001;
        myProcNo        11;
        neighbProcNo    2;
    }
    procBoundary11to3
    {
        type            processor;
        inGroups        List<word> 1(processor);
        nFaces          38;
        startFace       6561;
        matchTolerance  0.0001;
        myProcNo        11;
        neighbProcNo    3;
    }
    procBoundary11to4
    {
        type            processor;
        inGroups        List<word> 1(processor);
        nFaces          3;
        startFace       6599;
        matchTolerance  0.0001;
        myProcNo        11;
        neighbProcNo    4;
    }
    procBoundary11to8
    {
        type            processor;
        inGroups        List<word> 1(processor);
        nFaces          37;
        startFace       6602;
        matchTolerance  0.0001;
        myProcNo        11;
        neighbProcNo    8;
    }
    procBoundary11to10
    {
        type            processor;
        inGroups        List<word> 1(processor);
        nFaces          47;
        startFace       6639;
        matchTolerance  0.0001;
        myProcNo        11;
        neighbProcNo    10;
    }
    procBoundary11to14
    {
        type            processor;
        inGroups        List<word> 1(processor);
        nFaces          37;
        startFace       6686;
        matchTolerance  0.0001;
        myProcNo        11;
        neighbProcNo    14;
    }
)

// ************************************************************************* //
