/*--------------------------------*- C++ -*----------------------------------*\
  =========                 |
  \\      /  F ield         | OpenFOAM: The Open Source CFD Toolbox
   \\    /   O peration     | Website:  https://openfoam.org
    \\  /    A nd           | Version:  12
     \\/     M anipulation  |
\*---------------------------------------------------------------------------*/
FoamFile
{
    format      binary;
    class       volScalarField;
    location    "0";
    object      alpha.water;
}
// * * * * * * * * * * * * * * * * * * * * * * * * * * * * * * * * * * * * * //

dimensions      [];

internalField   uniform 1;

boundaryField
{
    walls
    {
        type            zeroGradient;
    }
    bottom
    {
        type            zeroGradient;
    }
    outlet
    {
        type            zeroGradient;
    }
    inlet
    {
        type            inletOutlet;
        inletValue      uniform 0.878;
        value           uniform 1;
    }
    defaultFaces
    {
        type            empty;
    }
    procBoundary10to2
    {
        type            processor;
        value           uniform 1;
    }
    procBoundary10to8
    {
        type            processor;
        value           uniform 1;
    }
    procBoundary10to9
    {
        type            processor;
        value           uniform 1;
    }
    procBoundary10to11
    {
        type            processor;
        value           uniform 1;
    }
}


// ************************************************************************* //
