/*--------------------------------*- C++ -*----------------------------------*\
  =========                 |
  \\      /  F ield         | OpenFOAM: The Open Source CFD Toolbox
   \\    /   O peration     | Website:  https://openfoam.org
    \\  /    A nd           | Version:  12
     \\/     M anipulation  |
\*---------------------------------------------------------------------------*/
FoamFile
{
    format      binary;
    class       volVectorField;
    location    "0";
    object      U.water;
}
// * * * * * * * * * * * * * * * * * * * * * * * * * * * * * * * * * * * * * //

dimensions      [0 1 -1 0 0 0 0];

internalField   uniform (0 0 0);

boundaryField
{
    walls
    {
        type            noSlip;
    }
    bottom
    {
        type            noSlip;
    }
    outlet
    {
        type            pressureInletOutletVelocity;
        phi             phi.water;
        value           uniform (0 0 0);
    }
    inlet
    {
        type            fixedValue;
        value           uniform (0 -2.19 0);
    }
    defaultFaces
    {
        type            empty;
    }
    procBoundary10to2
    {
        type            processor;
        value           uniform (0 0 0);
    }
    procBoundary10to8
    {
        type            processor;
        value           uniform (0 0 0);
    }
    procBoundary10to9
    {
        type            processor;
        value           uniform (0 0 0);
    }
    procBoundary10to11
    {
        type            processor;
        value           uniform (0 0 0);
    }
}


// ************************************************************************* //
