/*--------------------------------*- C++ -*----------------------------------*\
  =========                 |
  \\      /  F ield         | OpenFOAM: The Open Source CFD Toolbox
   \\    /   O peration     | Website:  https://openfoam.org
    \\  /    A nd           | Version:  12
     \\/     M anipulation  |
\*---------------------------------------------------------------------------*/
FoamFile
{
    format      ascii;
    class       volScalarField;
    object      alpha.water;
}
// * * * * * * * * * * * * * * * * * * * * * * * * * * * * * * * * * * * * * //

dimensions      [];

internalField   uniform 1;

boundaryField
{
    inlet
    {
      type            inletOutlet;
    inletValue      uniform 0.878;
    value           uniform 1;
    }
    
    outlet
    {
        type            zeroGradient;
    }

    walls
    {
        type            zeroGradient;
    }
    
    bottom
    {
    	type 		 zeroGradient;	
    }

    frontAndBackPlanes
    {
        type            empty;
    }
}

// ************************************************************************* //
