/*--------------------------------*- C++ -*----------------------------------*\
  =========                 |
  \\      /  F ield         | OpenFOAM: The Open Source CFD Toolbox
   \\    /   O peration     | Website:  https://openfoam.org
    \\  /    A nd           | Version:  12
     \\/     M anipulation  |
\*---------------------------------------------------------------------------*/
FoamFile
{
    format      ascii;
    class       volScalarField;
    object      alpha.particles;
}
// * * * * * * * * * * * * * * * * * * * * * * * * * * * * * * * * * * * * * //

dimensions      [];

internalField   uniform 1e-9;

boundaryField
{
  
  inlet
{
    type            fixedValue;
    value           uniform 0.122;
}
    
    outlet
    {
        type            zeroGradient;
    }

    walls
    {
        type            zeroGradient;
    }
    
    bottom
    {
        type            zeroGradient;
    }

    frontAndBackPlanes
    {
        type            empty;
    }
}

// ************************************************************************* //
