/*--------------------------------*- C++ -*----------------------------------*\
  =========                 |
  \\      /  F ield         | OpenFOAM: The Open Source CFD Toolbox
   \\    /   O peration     | Website:  https://openfoam.org
    \\  /    A nd           | Version:  12
     \\/     M anipulation  |
\*---------------------------------------------------------------------------*/
FoamFile
{
    format      ascii;
    class       volVectorField;
    object      U.particles;
}
// * * * * * * * * * * * * * * * * * * * * * * * * * * * * * * * * * * * * * //

dimensions      [0 1 -1 0 0 0 0];

internalField   uniform (0 0 0);

boundaryField
{
    
    inlet
    {
       type            fixedValue;
        value           uniform (0 -2.19 0);
    }

    outlet
    {
        type            pressureInletOutletVelocity;
        phi             phi.particles;
        value           $internalField;
    }

    walls
    {
        type            JohnsonJacksonParticleSlip;
        specularityCoefficient  0.01;
        value           uniform (0 0 0);
    }
    
    bottom
    {
        type            JohnsonJacksonParticleSlip;
        specularityCoefficient  0.01;
        value           uniform (0 0 0);
    }

    frontAndBackPlanes
    {
        type            empty;
    }
}

// ************************************************************************* //
