/*--------------------------------*- C++ -*----------------------------------*\
  =========                 |
  \\      /  F ield         | OpenFOAM: The Open Source CFD Toolbox
   \\    /   O peration     | Website:  https://openfoam.org
    \\  /    A nd           | Version:  12
     \\/     M anipulation  |
\*---------------------------------------------------------------------------*/
FoamFile
{
    format      binary;
    class       polyBoundaryMesh;
    location    "constant/polyMesh";
    object      boundary;
}
// * * * * * * * * * * * * * * * * * * * * * * * * * * * * * * * * * * * * * //

9
(
    walls
    {
        type            wall;
        physicalType    patch;
        inGroups        List<word> 1(wall);
        nFaces          0;
        startFace       3213;
    }
    bottom
    {
        type            wall;
        physicalType    patch;
        inGroups        List<word> 1(wall);
        nFaces          0;
        startFace       3213;
    }
    outlet
    {
        type            patch;
        physicalType    patch;
        nFaces          42;
        startFace       3213;
    }
    inlet
    {
        type            patch;
        physicalType    patch;
        nFaces          1;
        startFace       3255;
    }
    defaultFaces
    {
        type            empty;
        inGroups        List<word> 1(empty);
        nFaces          3296;
        startFace       3256;
    }
    procBoundary2to1
    {
        type            processor;
        inGroups        List<word> 1(processor);
        nFaces          40;
        startFace       6552;
        matchTolerance  0.0001;
        myProcNo        2;
        neighbProcNo    1;
    }
    procBoundary2to3
    {
        type            processor;
        inGroups        List<word> 1(processor);
        nFaces          45;
        startFace       6592;
        matchTolerance  0.0001;
        myProcNo        2;
        neighbProcNo    3;
    }
    procBoundary2to10
    {
        type            processor;
        inGroups        List<word> 1(processor);
        nFaces          34;
        startFace       6637;
        matchTolerance  0.0001;
        myProcNo        2;
        neighbProcNo    10;
    }
    procBoundary2to11
    {
        type            processor;
        inGroups        List<word> 1(processor);
        nFaces          4;
        startFace       6671;
        matchTolerance  0.0001;
        myProcNo        2;
        neighbProcNo    11;
    }
)

// ************************************************************************* //
