/*--------------------------------*- C++ -*----------------------------------*\
  =========                 |
  \\      /  F ield         | OpenFOAM: The Open Source CFD Toolbox
   \\    /   O peration     | Website:  https://openfoam.org
    \\  /    A nd           | Version:  12
     \\/     M anipulation  |
\*---------------------------------------------------------------------------*/
FoamFile
{
    format      ascii;
    class       polyBoundaryMesh;
    location    "constant/polyMesh";
    object      boundary;
}
// * * * * * * * * * * * * * * * * * * * * * * * * * * * * * * * * * * * * * //

4
(
    walls
    {
        type            wall;
        physicalType    patch;
        inGroups        List<word> 1(wall);
        nFaces          150;
        startFace       7375;
    }
    outlet
    {
        type            patch;
        physicalType    patch;
        nFaces          50;
        startFace       7525;
    }
    defaultFaces
    {
        type            empty;
        inGroups        List<word> 1(empty);
        nFaces          7500;
        startFace       7575;
    }
    procBoundary1to0
    {
        type            processor;
        inGroups        List<word> 1(processor);
        nFaces          50;
        startFace       15075;
        matchTolerance  0.0001;
        myProcNo        1;
        neighbProcNo    0;
    }
)

// ************************************************************************* //
