
/*--------------------------------*- C++ -*----------------------------------*\
  =========                 |
  \\      /  F ield         | OpenFOAM: The Open Source CFD Toolbox
   \\    /   O peration     | Website:  https://openfoam.org
    \\  /    A nd           | Version:  12
     \\/     M anipulation  |
\*---------------------------------------------------------------------------*/
FoamFile
{
    format      ascii;
    class       dictionary;
    object      fvSolution;
}
// * * * * * * * * * * * * * * * * * * * * * * * * * * * * * * * * * * * * * //

solvers
{

    // Phase fraction (alpha.particles)
    "alpha.*"
    {
    	nAlphaCorr      2;
    	nAlphaSubCycles 2;
    	nLimiterIter    10;
    	smoothLimiter   0.1;
    	implicitPhasePressure yes;

    	solver          PBiCGStab;
    	preconditioner  DILU;
    	tolerance       1e-9;
    	relTol          0;
    	minIter         1;
    }

    // Pressure equation
    p_rgh
    {
        solver          GAMG;
        tolerance       1e-8;
        relTol          0.01;
        smoother        GaussSeidel;
        nPreSweeps      0;
        nPostSweeps     2;
        nFinestSweeps   2;
        cacheAgglomeration true;
        agglomerator    faceAreaPair;
        nCellsInCoarsestLevel 10;
        mergeLevels     1;
        minIter         3;
    }

    p_rghFinal
    {
        $p_rgh;
        relTol          0;
        minIter         3;
    }

    // Velocities
    "U.*"
    {
        solver          PBiCGStab;
        preconditioner  DILU;
        tolerance       1e-6;
        relTol          0.01;
        minIter         1;
    }

    // Granular temperature
    "Theta.*"
    {
        solver          DILUPBiCGStab;
        preconditioner  DILU;
        tolerance       1e-6;
        relTol          0.01;
        minIter         1;
    }

    // Turbulence models
    "(k|epsilon).*"
    {
        solver          PBiCGStab;
        preconditioner  DILU;
        tolerance       1e-6;
        relTol          0.01;
        minIter         1;
    }
}

PIMPLE
{
    consistent              yes;
    faceMomentum            yes;
    dragCorrection          yes;
    partialElimination      no;
    nOuterCorrectors        3;
    nCorrectors             2;
    nNonOrthogonalCorrectors 1;
    momentumPredictor       yes;
}

relaxationFactors
{
    fields
    {
        p_rgh 0.3;
    }
    equations
    {
        ".*U.*"        0.3;
        ".*alpha.*"    0.3;
        ".*Theta.*"    0.2;
        ".*k.*"        0.3;
        ".*epsilon.*"  0.3;
    }
}

// ************************************************************************* //
