/*--------------------------------*- C++ -*----------------------------------*\
  =========                 |
  \\      /  F ield         | OpenFOAM: The Open Source CFD Toolbox
   \\    /   O peration     | Website:  https://openfoam.org
    \\  /    A nd           | Version:  12
     \\/     M anipulation  |
\*---------------------------------------------------------------------------*/
FoamFile
{
    format      binary;
    class       polyBoundaryMesh;
    location    "constant/polyMesh";
    object      boundary;
}
// * * * * * * * * * * * * * * * * * * * * * * * * * * * * * * * * * * * * * //

10
(
    walls
    {
        type            wall;
        physicalType    patch;
        inGroups        List<word> 1(wall);
        nFaces          34;
        startFace       3183;
    }
    bottom
    {
        type            wall;
        physicalType    patch;
        inGroups        List<word> 1(wall);
        nFaces          0;
        startFace       3217;
    }
    outlet
    {
        type            patch;
        physicalType    patch;
        nFaces          0;
        startFace       3217;
    }
    inlet
    {
        type            patch;
        physicalType    patch;
        nFaces          0;
        startFace       3217;
    }
    defaultFaces
    {
        type            empty;
        inGroups        List<word> 1(empty);
        nFaces          3266;
        startFace       3217;
    }
    procBoundary8to9
    {
        type            processor;
        inGroups        List<word> 1(processor);
        nFaces          43;
        startFace       6483;
        matchTolerance  0.0001;
        myProcNo        8;
        neighbProcNo    9;
    }
    procBoundary8to10
    {
        type            processor;
        inGroups        List<word> 1(processor);
        nFaces          5;
        startFace       6526;
        matchTolerance  0.0001;
        myProcNo        8;
        neighbProcNo    10;
    }
    procBoundary8to11
    {
        type            processor;
        inGroups        List<word> 1(processor);
        nFaces          37;
        startFace       6531;
        matchTolerance  0.0001;
        myProcNo        8;
        neighbProcNo    11;
    }
    procBoundary8to13
    {
        type            processor;
        inGroups        List<word> 1(processor);
        nFaces          42;
        startFace       6568;
        matchTolerance  0.0001;
        myProcNo        8;
        neighbProcNo    13;
    }
    procBoundary8to14
    {
        type            processor;
        inGroups        List<word> 1(processor);
        nFaces          5;
        startFace       6610;
        matchTolerance  0.0001;
        myProcNo        8;
        neighbProcNo    14;
    }
)

// ************************************************************************* //
