/*--------------------------------*- C++ -*----------------------------------*\
  =========                 |
  \\      /  F ield         | OpenFOAM: The Open Source CFD Toolbox
   \\    /   O peration     | Website:  https://openfoam.org
    \\  /    A nd           | Version:  12
     \\/     M anipulation  |
\*---------------------------------------------------------------------------*/
FoamFile
{
    format      binary;
    class       polyBoundaryMesh;
    location    "constant/polyMesh";
    object      boundary;
}
// * * * * * * * * * * * * * * * * * * * * * * * * * * * * * * * * * * * * * //

10
(
    walls
    {
        type            wall;
        physicalType    patch;
        inGroups        List<word> 1(wall);
        nFaces          0;
        startFace       3199;
    }
    bottom
    {
        type            wall;
        physicalType    patch;
        inGroups        List<word> 1(wall);
        nFaces          0;
        startFace       3199;
    }
    outlet
    {
        type            patch;
        physicalType    patch;
        nFaces          0;
        startFace       3199;
    }
    inlet
    {
        type            patch;
        physicalType    patch;
        nFaces          0;
        startFace       3199;
    }
    defaultFaces
    {
        type            empty;
        inGroups        List<word> 1(empty);
        nFaces          3280;
        startFace       3199;
    }
    procBoundary14to4
    {
        type            processor;
        inGroups        List<word> 1(processor);
        nFaces          40;
        startFace       6479;
        matchTolerance  0.0001;
        myProcNo        14;
        neighbProcNo    4;
    }
    procBoundary14to8
    {
        type            processor;
        inGroups        List<word> 1(processor);
        nFaces          5;
        startFace       6519;
        matchTolerance  0.0001;
        myProcNo        14;
        neighbProcNo    8;
    }
    procBoundary14to11
    {
        type            processor;
        inGroups        List<word> 1(processor);
        nFaces          37;
        startFace       6524;
        matchTolerance  0.0001;
        myProcNo        14;
        neighbProcNo    11;
    }
    procBoundary14to13
    {
        type            processor;
        inGroups        List<word> 1(processor);
        nFaces          39;
        startFace       6561;
        matchTolerance  0.0001;
        myProcNo        14;
        neighbProcNo    13;
    }
    procBoundary14to15
    {
        type            processor;
        inGroups        List<word> 1(processor);
        nFaces          41;
        startFace       6600;
        matchTolerance  0.0001;
        myProcNo        14;
        neighbProcNo    15;
    }
)

// ************************************************************************* //
